Version 4
SHEET 1 880 680
WIRE -1232 16 -1360 16
WIRE -1040 16 -1232 16
WIRE -848 16 -1040 16
WIRE -656 16 -848 16
WIRE -464 16 -656 16
WIRE -272 16 -464 16
WIRE -64 16 -272 16
WIRE 128 16 -64 16
WIRE -1232 64 -1232 16
WIRE -1040 64 -1040 16
WIRE -848 64 -848 16
WIRE -656 64 -656 16
WIRE -464 64 -464 16
WIRE -272 64 -272 16
WIRE -64 64 -64 16
WIRE 128 64 128 16
WIRE -1312 96 -1360 96
WIRE -1120 96 -1168 96
WIRE -928 96 -976 96
WIRE -736 96 -784 96
WIRE -544 96 -592 96
WIRE -352 96 -400 96
WIRE -144 96 -208 96
WIRE 48 96 0 96
WIRE 320 96 192 96
WIRE 384 96 320 96
WIRE -1312 160 -1328 160
WIRE -1120 160 -1168 160
WIRE -928 160 -976 160
WIRE -736 160 -784 160
WIRE -544 160 -592 160
WIRE -352 160 -400 160
WIRE -144 160 -208 160
WIRE 48 160 0 160
WIRE 288 160 192 160
WIRE -1328 208 -1328 160
WIRE 320 208 320 96
WIRE 320 208 -1328 208
WIRE -1360 240 -1360 96
WIRE 288 240 288 160
WIRE 288 240 -1360 240
FLAG 384 96 out
IOPIN 384 96 Out
FLAG -1360 16 vcc
IOPIN -1360 16 In
SYMBOL UNIT -1248 128 R0
SYMATTR InstName X1
SYMBOL UNIT -1056 128 R0
SYMATTR InstName X2
SYMBOL UNIT -80 128 R0
SYMATTR InstName X7
SYMBOL UNIT 112 128 R0
SYMATTR InstName X8
SYMBOL UNIT -864 128 R0
SYMATTR InstName X3
SYMBOL UNIT -672 128 R0
SYMATTR InstName X4
SYMBOL UNIT -480 128 R0
SYMATTR InstName X5
SYMBOL UNIT -288 128 R0
SYMATTR InstName X6
