Version 4
SHEET 1 880 696
WIRE 64 256 0 256
WIRE 240 256 192 256
FLAG 0 336 0
FLAG 240 256 out
SYMBOL ring32 128 256 R0
SYMATTR InstName X1
SYMBOL voltage 0 240 R0
WINDOW 123 0 0 Left 2
WINDOW 39 0 0 Left 2
SYMATTR InstName V1
SYMATTR Value PULSE 0 5
TEXT 8 472 Left 2 !.include "./models/mos_tt.lib"\n
TEXT -32 496 Left 2 !.tran 200n
